/*--------------------------------*- C++ -*----------------------------------*\
| =========                 |                                                 |
| \\      /  F ield         | foam-extend: Open Source CFD                    |
|  \\    /   O peration     | Version:     4.1                                |
|   \\  /    A nd           | Web:         http://www.foam-extend.org         |
|    \\/     M anipulation  |                                                 |
\*---------------------------------------------------------------------------*/
FoamFile
{
    version     2.0;
    format      ascii;
    class       dictionary;
    location    "system";
    object      fvSolution;
}
// * * * * * * * * * * * * * * * * * * * * * * * * * * * * * * * * * * * * * //

solvers
{
    rho
    {}
    pcorr
    {
        solver          PCG;
        preconditioner  DIC;
        tolerance       1e-10;
        relTol          0;
    }

    pd
    {
        solver          PCG;
        preconditioner  DIC;
        tolerance       1e-07;
        relTol          0.05;
    }

    pdFinal
    {
        solver          PCG;
        preconditioner  DIC;
        tolerance       1e-07;
        relTol          0;
    }

    U
    {
        solver          BiCGStab;
        preconditioner  DILU;
        tolerance       1e-06;
        relTol          0;
    }

    T
    {
        solver BICCG;
        preconditioner DILU;
        tolerance 1e-7;
        relTol 0;

        /*solver          BiCGStab;
        preconditioner  DILU;
        tolerance       1e-08;
        relTol          0;*/
    }
}
PISO
{
    cAlpha          1.0;
}
PIMPLE
{
    momentumPredictor yes;
    nOuterCorrectors 5;
    nCorrectors     4;
    nNonOrthogonalCorrectors 0;
    nAlphaCorr      3;
    nAlphaSubCycles 3;
}


// ************************************************************************* //
