/*--------------------------------*- C++ -*----------------------------------*\
| =========                 |                                                 |
| \\      /  F ield         | foam-extend: Open Source CFD                    |
|  \\    /   O peration     | Version:     4.1                                |
|   \\  /    A nd           | Web:         http://www.foam-extend.org         |
|    \\/     M anipulation  |                                                 |
\*---------------------------------------------------------------------------*/
FoamFile
{
    version     2.0;
    format      ascii;
    class       dictionary;
    object      controlDict;
}
// * * * * * * * * * * * * * * * * * * * * * * * * * * * * * * * * * * * * * //

libs
(
    "liblduSolvers.so"
    "libPCM4Foam.so"
)

application     chtMultiRegion4PCMFoam;

startFrom       latestTime;

startTime       0;

stopAt          endTime;

endTime         12000;

deltaT          0.1;

writeControl    adjustableRunTime;

writeInterval   600;

purgeWrite      0;

writeFormat     ascii;

writePrecision  7;

writeCompression compressed;

timeFormat      general;

timePrecision   6;

runTimeModifiable yes;

maxCo           0.7;

maxDi		0.1;

adjustTimeStep  yes;

maxDeltaT	1.0;

// ************************************************************************* //
