/*--------------------------------*- C++ -*----------------------------------*\
| =========                 |                                                 |
| \\      /  F ield         | foam-extend: Open Source CFD                    |
|  \\    /   O peration     | Version:     4.1                                |
|   \\  /    A nd           | Web:         http://www.foam-extend.org         |
|    \\/     M anipulation  |                                                 |
\*---------------------------------------------------------------------------*/
FoamFile
{
    version     2.0;
    format      ascii;
    class       dictionary;
    object      changePatchTypeDict;
}
// * * * * * * * * * * * * * * * * * * * * * * * * * * * * * * * * * * * * * //

dictionaryReplacement
{
    T
    {
        internalField   uniform 291;

        boundaryField
        {
            top
            {
                type            zeroGradient;
            }

            bottom
            {
                type            zeroGradient;
            }

            right
            {
                type            zeroGradient;
            }

            left
            {
                type            zeroGradient;
            }

            back
            {
                type            fixedValue;
                value           uniform 307;
            }

            front
            {
                type            fixedValue;
                value           uniform 297;
            }

            brick_to_metalCover
            {
                type            solidWallMixedTemperatureCoupled;
                neighbourRegionName metalCover;
                neighbourPatchName metalCover_to_brick;
                neighbourFieldName T;
                Kappa           Kappa;
                value           uniform 291;
            }
        }
    }

    rho
    {
        internalField   uniform 1800;

        boundaryField
        {
            top
            {
                type            zeroGradient;
            }

            bottom
            {
                type            zeroGradient;
            }

            right
            {
                type            zeroGradient;
            }

            left
            {
                type            zeroGradient;
            }

            back
            {
                type            zeroGradient;
            }

            front
            {
                type            zeroGradient;
            }

            brick_to_metalCover
            {
                type            zeroGradient;
            }
        }
    }

    Kappa
    {
        internalField   uniform 0.72;

        boundaryField
        {
            top
            {
                type            zeroGradient;
            }

            bottom
            {
                type            zeroGradient;
            }

            right
            {
                type            zeroGradient;
            }

            left
            {
                type            zeroGradient;
            }

            back
            {
                type            zeroGradient;
            }

            front
            {
                type            zeroGradient;
            }

            brick_to_metalCover
            {
                type            zeroGradient;
            }
        }
    }

    cp
    {
        internalField   uniform 829;

        boundaryField
        {
            top
            {
                type            zeroGradient;
            }

            bottom
            {
                type            zeroGradient;
            }

            right
            {
                type            zeroGradient;
            }

            left
            {
                type            zeroGradient;
            }

            back
            {
                type            zeroGradient;
            }

            front
            {
                type            zeroGradient;
            }

            brick_to_metalCover
            {
                type            zeroGradient;
            }
        }
    }
}


// ************************************************************************* //
