/*--------------------------------*- C++ -*----------------------------------*\
| =========                 |                                                 |
| \\      /  F ield         | foam-extend: Open Source CFD                    |
|  \\    /   O peration     | Version:     4.1                                |
|   \\  /    A nd           | Web:         http://www.foam-extend.org         |
|    \\/     M anipulation  |                                                 |
\*---------------------------------------------------------------------------*/
FoamFile
{
    version     2.0;
    format      ascii;
    class       volVectorField;
    object      B;
}
// * * * * * * * * * * * * * * * * * * * * * * * * * * * * * * * * * * * * * //

dimensions		[1 0 -2 0 0 -1 0];

internalField		uniform (0 1.3e3 0);//Ha=1

boundaryField
{
    inlet
    {
        type            zeroGradient;
    }

    outlet
    {
        type            zeroGradient;
    }

    lowerWall
    {
        type            fixedValue;
        value           uniform (0 1.3e3 0);
    }

    upperWall
    {
        type            fixedValue;
        value           uniform (0 1.3e3 0);
    }

    frontAndBack
    {
        type            empty;
    }
}


// ************************************************************************* //
