/*--------------------------------*- C++ -*----------------------------------*\
| =========                 |                                                 |
| \\      /  F ield         | foam-extend: Open Source CFD                    |
|  \\    /   O peration     | Version:     4.1                                |
|   \\  /    A nd           | Web:         http://www.foam-extend.org         |
|    \\/     M anipulation  |                                                 |
\*---------------------------------------------------------------------------*/
FoamFile
{
    version     2.0;
    format      ascii;
    class       volScalarField;
    object      IDefault;
}
// * * * * * * * * * * * * * * * * * * * * * * * * * * * * * * * * * * * * * //

dimensions      [1 0 -3 0 0 0 0];

internalField   uniform 0;

boundaryField
{
    top
    {
        type            greyDiffusiveRadiation;
        T               T;
        emissivity      0.5;
        value           uniform 0;
    }

    bottom
    {
        type            greyDiffusiveRadiation;
        T               T;
        emissivity      0.5;
        value           uniform 0;
    }

    left
    {
        type            greyDiffusiveRadiation;
        T               T;
        emissivity      0.5;
        value           uniform 0;
    }

    right
    {
        type            greyDiffusiveRadiation;
        T               T;
        emissivity      0.5;
        value           uniform 0;
    }

    front
    {
        type            greyDiffusiveRadiation;
        T               T;
        emissivity      0.5;
        value           uniform 0;
    }

    back
    {
        type            greyDiffusiveRadiation;
        T               T;
        emissivity      0.5;
        value           uniform 0;
    }
}


// ************************************************************************* //
