/*--------------------------------*- C++ -*----------------------------------*\
  =========                 |
  \\      /  F ield         | OpenFOAM: The Open Source CFD Toolbox
   \\    /   O peration     | Website:  https://openfoam.org
    \\  /    A nd           | Version:  6
     \\/     M anipulation  |
\*---------------------------------------------------------------------------*/
FoamFile
{
    version     2.0;
    format      ascii;
    class       dictionary;
    object      createPatchDict;
}

// * * * * * * * * * * * * * * * * * * * * * * * * * * * * * * * * * * * * * //
pointSync false;
writeCyclicMatch  false;

patchInfo
(
    {
        name cylinder;
        dictionary
        {
            type	wall;
        }
        constructFrom patches;
	patches (cylinder_cylinder);
    }
);

// ************************************************************************* //
