/*--------------------------------*- C++ -*----------------------------------*\
| =========                 |                                                 |
| \\      /  F ield         | foam-extend: Open Source CFD                    |
|  \\    /   O peration     | Version:     4.1                                |
|   \\  /    A nd           | Web:         http://www.foam-extend.org         |
|    \\/     M anipulation  |                                                 |
\*---------------------------------------------------------------------------*/
FoamFile
{
    version     2.0;
    format      ascii;
    class       dictionary;
    object      battery;
}
// * * * * * * * * * * * * * * * * * * * * * * * * * * * * * * * * * * * * * //


gas
{
    rho		rho [1 -3 0 0 0 0 0]		0.083;
    Cp		Cp [0 2 -2 -1 0 0 0]		14890;
    kappa	kappa [ 1 1 -3 -1 0 0 0 ]	0.1815;
    M		M [1 0 0 0 -1 0 0]		2.016e-3;
}


deltaH		deltaH [1 2 -2 0 -1 0 0]	30800;//j/mol
deltaS		deltaS [1 2 -2 -1 -1 0 0]	108;//j/mol.K
Ca		Ca [0 0 -1 0 0 0 0]		59.18;
Ea		Ea [1 2 -2 0 -1 0 0]		21180;
rhos		rhos [1 -3 0 0 0 0 0]		7259;
pRef		pRef [1 -1 -2 0 0 0 0]		1e5;
R		R [1 2 -2 -1 -1 0 0]		8.314;


chargingPressure//p = a*t + b
{
    a		0.0;//7.5e3;
    b		1e5;
}


// ************************************************************************* //
