/*--------------------------------*- C++ -*----------------------------------*\
| =========                 |                                                 |
| \\      /  F ield         | foam-extend: Open Source CFD                    |
|  \\    /   O peration     | Version:     4.1                                |
|   \\  /    A nd           | Web:         http://www.foam-extend.org         |
|    \\/     M anipulation  |                                                 |
\*---------------------------------------------------------------------------*/
FoamFile
{
    version     2.0;
    format      ascii;
    class       dictionary;
    location    "constant";
    object      porousZones;
}
// * * * * * * * * * * * * * * * * * * * * * * * * * * * * * * * * * * * * * //

1
(
    MH
    {
        coordinateSystem
        {
            e1  (0.7 0.7 0);
            e2  (0 0.7 0);
        }

        Darcy
        {
            d   d [0 -2 0 0 0 0 0] (5e7 -1000 -1000);
            f   f [0 -1 0 0 0 0 0] (0 0 0);
        }

        porosity    0.6;
    }
)


// ************************************************************************* //
