/*--------------------------------*- C++ -*----------------------------------*\
| =========                 |                                                 |
| \\      /  F ield         | foam-extend: Open Source CFD                    |
|  \\    /   O peration     | Version:     4.1                                |
|   \\  /    A nd           | Web:         http://www.foam-extend.org         |
|    \\/     M anipulation  |                                                 |
\*---------------------------------------------------------------------------*/
FoamFile
{
    version     2.0;
    format      ascii;
    class       dictionary;
    object      EPCMProperties;
}
// * * * * * * * * * * * * * * * * * * * * * * * * * * * * * * * * * * * * * //

alphaEPCMEq	inactive;

omega		omega [ 0 0 0 0 0 0 0 ]		0.7;
lambda		lambda [ 0 0 0 0 0 0 0 ]	3;
DB		DB [ 0 2 -1 0 0 0 0 ]		1e-13;
DT		DT [ 0 2 -1 0 0 0 0 ]		1e-13;

//Thermal properties of EPCM's core
core
{
    rho		rho [ 1 -3 0 0 0 0 0 ]		912;
    Cp		Cp [ 0 2 -2 -1 0 0 0 ]		2285;
    kappa	kappa [ 1 1 -3 -1 0 0 0 ]	0.15;
    beta	beta [ 0 0 0 -1 0 0 0 ]		9.0e-5;
    Tm		Tm [ 0 0 0 1 0 0 0 ]		319;
    Tmr		Tmr [ 0 0 0 1 0 0 0 ]		4.0;
    hm		hm [ 0 2 -2 0 0 0 0 ]		187000;
}

//Thermal properties of EPCM's shell
shell
{
    rho		rho [ 1 -3 0 0 0 0 0 ]		1125;
    Cp		Cp [ 0 2 -2 -1 0 0 0 ]		1250;
    kappa	kappa [ 1 1 -3 -1 0 0 0 ]	0.4;
    beta	beta [ 0 0 0 -1 0 0 0 ]		4e-5;
    d		d [ 0 1 0 0 0 0 0 ]		30e-09;
}
// ************************************************************************* //
