/*--------------------------------*- C++ -*----------------------------------*\
| =========                 |                                                 |
| \\      /  F ield         | foam-extend: Open Source CFD                    |
|  \\    /   O peration     | Version:     4.1                                |
|   \\  /    A nd           | Web:         http://www.foam-extend.org         |
|    \\/     M anipulation  |                                                 |
\*---------------------------------------------------------------------------*/
FoamFile
{
    version     2.0;
    format      ascii;
    class       dictionary;
    object      transportProperties;
}
// * * * * * * * * * * * * * * * * * * * * * * * * * * * * * * * * * * * * * //

transportModel  Newtonian;
type            naturalConvection;

nu		nu [0 2 -1 0 0 0 0]		3.93e-6;

rho		rho [1 -3 0 0 0 0 0]		770;
Cp		Cp [0 2 -2 -1 0 0 0]		2215;
kappa		kappa [ 1 1 -3 -1 0 0 0 ]	0.2;
mu		mu [ 1 -1 -1 0 0 0 0 ]		3.03e-3;
beta            beta [0 0 0 -1 0 0 0]		7e-4;
TRef            TRef [0 0 0 1 0 0 0]		291;
Prt		Prt [0 0 0 0 0 0 0]		0.85;

// ************************************************************************* //
