/*--------------------------------*- C++ -*----------------------------------*\
| =========                 |                                                 |
| \\      /  F ield         | foam-extend: Open Source CFD                    |
|  \\    /   O peration     | Version:     4.1                                |
|   \\  /    A nd           | Web:         http://www.foam-extend.org         |
|    \\/     M anipulation  |                                                 |
\*---------------------------------------------------------------------------*/
FoamFile
{
    version     2.0;
    format      ascii;
    class       dictionary;
    object      changePatchTypeDict;
}
// * * * * * * * * * * * * * * * * * * * * * * * * * * * * * * * * * * * * * //

dictionaryReplacement
{
    U
    {
        internalField   uniform (1.0e-8 0 0);

        boundaryField
        {
            top
            {
                type            fixedValue;
                value           uniform (0 0 0);
            }

            bottom
            {
                type            fixedValue;
                value           uniform (0 0 0);
            }

            left
            {
                type            fixedValue;
                value           uniform (0 0 0);
            }

            right
            {
                type            fixedValue;
                value           uniform (0 0 0);
            }

            front
            {
                type            empty;
            }

            back
            {
                type            empty;
            }

            chamber_to_square
            {
                type            fixedValue;
                value           uniform (0 0 0);
            }
        }
    }

    T
    {
        internalField   uniform 315;

        boundaryField
        {
            top
            {
                type            zeroGradient;
            }

            bottom
            {
                type            zeroGradient;
            }

            left
            {
                type            fixedValue;
                value           uniform 315;
            }

            right
            {
                type            fixedValue;
                value           uniform 315;
            }

            front
            {
                type            empty;
            }

            back
            {
                type            empty;
            }

            chamber_to_square
            {
                type            solidWallMixedTemperatureCoupled;
                neighbourRegionName square;
                neighbourPatchName square_to_chamber;
                neighbourFieldName T;
                Kappa           kappaEff;
                value           uniform 315;
            }
        }
    }

    p
    {
        internalField   uniform 0;

        boundaryField
        {
            top
            {
                type            buoyantPressure;
                rho             rhok;
                value           uniform 0;
            }

            bottom
            {
                type            buoyantPressure;
                rho             rhok;
                value           uniform 0;
            }

            left
            {
                type            buoyantPressure;
                rho             rhok;
                value           uniform 0;
            }

            right
            {
                type            buoyantPressure;
                rho             rhok;
                value           uniform 0;
            }

            front
            {
                type            empty;
            }

            back
            {
                type            empty;
            }

            chamber_to_square
            {
                type            buoyantPressure;
                rho             rhok;
                value           uniform 0;
            }
        }
    }

    alphaEPCM
    {
        internalField   uniform 0.03;

        boundaryField
        {
            top
            {
                type            zeroGradient;
            }

            bottom
            {
                type            zeroGradient;
            }

            left
            {
                type            zeroGradient;
            }

            right
            {
                type            zeroGradient;
            }

            front
            {
                type            empty;
            }

            back
            {
                type            empty;
            }

            chamber_to_square
            {
                type            zeroGradient;
            }
        }
    }

}


// ************************************************************************* //
